examples/tesp-pcs/files/R2-25.00-1_processed.glm
clock {
     timezone EST+5EDT;
  timestamp '2010-06-01 00:00:00';
  stoptime '2010-06-03 00:00:00';
}
#set profiler=1
module tape;
module powerflow{
     solver_method NR;
      default_maximum_voltage_error 1e-6;
};
#ifdef WANT_VI_DUMP
#endif
module climate;
module generators;
module connection;
module residential {
  implicit_enduses NONE;
};
#include "../../../../support/schedules/appliance_schedules.glm";
#include "../../../../support/schedules/water_and_setpoint_schedule_v5.glm";
#include "../../../../support/schedules/commercial_schedules.glm";
#set minimum_timestep=15;
#set relax_naming_rules=1;
#set warn=0;
object metrics_collector_writer {
  interval 300;
  interim 43200;
  filename ${METRICS_FILE};
  // filename R2-25.00-1_processed_metrics.json;
};
object climate {
  name localWeather;
  // tmyfile "../../../../support/weather/AZ-Tucson_International_Ap.tmy3";
  // agent name weather
  interpolate QUADRATIC;
  latitude 30.0;
  longitude -110.0;
  // altitude 0.0;
  tz_meridian 0.0;
};
// default IEEE 1547-2018 settings for Category B
#define INV_VBASE=240.0
#define INV_V1=0.92
#define INV_V2=0.98
#define INV_V3=1.02
#define INV_V4=1.08
#define INV_Q1=0.44
#define INV_Q2=0.00
#define INV_Q3=0.00
#define INV_Q4=-0.44
#define INV_VIN=200.0
#define INV_IIN=32.5
#define INV_VVLOCKOUT=300.0
#define INV_VW_V1=1.05 // 1.05833
#define INV_VW_V2=1.10
#define INV_VW_P1=1.0
#define INV_VW_P2=0.0
#ifdef WANT_VI_DUMP
object voltdump {
  filename Voltage_Dump_R2-25.00-1_processed.csv;
  mode polar;
}
object currdump {
  filename Current_Dump_R2-25.00-1_processed.csv;
  mode polar;
}
#endif // &&& end of common section for combining TESP cases
// solar inverter mode on this feeder
#define INVERTER_MODE=CONSTANT_PF
object transformer_configuration {
  name XF1_PADMOUNT_AS_75;
  power_rating 75.00;
  powerA_rating 75.00;
  powerB_rating 0.0;
  powerC_rating 0.0;
  install_type PADMOUNT;
  connect_type SINGLE_PHASE_CENTER_TAPPED;
  primary_voltage 14400.0;
  secondary_voltage 120.0;
  resistance 0.00625;
  resistance1 0.01250;
  resistance2 0.01250;
  reactance 0.01352;
  reactance1 0.00676;
  reactance2 0.00676;
  shunt_resistance 238.10;
  shunt_reactance 67.11;
}
object transformer_configuration {
  name XF1_POLETOP_AS_10;
  power_rating 10.00;
  powerA_rating 10.00;
  powerB_rating 0.0;
  powerC_rating 0.0;
  install_type POLETOP;
  connect_type SINGLE_PHASE_CENTER_TAPPED;
  primary_voltage 14400.0;
  secondary_voltage 120.0;
  resistance 0.00950;
  resistance1 0.01900;
  resistance2 0.01900;
  reactance 0.01040;
  reactance1 0.00520;
  reactance2 0.00520;
  shunt_resistance 147.06;
  shunt_reactance 34.25;
}
object transformer_configuration {
  name XF1_POLETOP_BS_10;
  power_rating 10.00;
  powerA_rating 0.0;
  powerB_rating 10.00;
  powerC_rating 0.0;
  install_type POLETOP;
  connect_type SINGLE_PHASE_CENTER_TAPPED;
  primary_voltage 14400.0;
  secondary_voltage 120.0;
  resistance 0.00950;
  resistance1 0.01900;
  resistance2 0.01900;
  reactance 0.01040;
  reactance1 0.00520;
  reactance2 0.00520;
  shunt_resistance 147.06;
  shunt_reactance 34.25;
}
object transformer_configuration {
  name XF1_POLETOP_CS_10;
  power_rating 10.00;
  powerA_rating 0.0;
  powerB_rating 0.0;
  powerC_rating 10.00;
  install_type POLETOP;
  connect_type SINGLE_PHASE_CENTER_TAPPED;
  primary_voltage 14400.0;
  secondary_voltage 120.0;
  resistance 0.00950;
  resistance1 0.01900;
  resistance2 0.01900;
  reactance 0.01040;
  reactance1 0.00520;
  reactance2 0.00520;
  shunt_resistance 147.06;
  shunt_reactance 34.25;
}
object transformer_configuration {
  name XF1_POLETOP_AS_167;
  power_rating 167.00;
  powerA_rating 167.00;
  powerB_rating 0.0;
  powerC_rating 0.0;
  install_type POLETOP;
  connect_type SINGLE_PHASE_CENTER_TAPPED;
  primary_voltage 14400.0;
  secondary_voltage 120.0;
  resistance 0.00575;
  resistance1 0.01150;
  resistance2 0.01150;
  reactance 0.02216;
  reactance1 0.01108;
  reactance2 0.01108;
  shunt_resistance 263.16;
  shunt_reactance 60.24;
}
object transformer_configuration {
  name XF1_POLETOP_AS_5;
  power_rating 5.00;
  powerA_rating 5.00;
  powerB_rating 0.0;
  powerC_rating 0.0;
  install_type POLETOP;
  connect_type SINGLE_PHASE_CENTER_TAPPED;
  primary_voltage 14400.0;
  secondary_voltage 120.0;
  resistance 0.01050;
  resistance1 0.02100;
  resistance2 0.02100;
  reactance 0.01224;
  reactance1 0.00612;
  reactance2 0.00612;
  shunt_resistance 111.11;
  shunt_reactance 29.59;
}
object transformer_configuration {
  name XF1_POLETOP_BS_5;
  power_rating 5.00;
  powerA_rating 0.0;
  powerB_rating 5.00;
  powerC_rating 0.0;
  install_type POLETOP;
  connect_type SINGLE_PHASE_CENTER_TAPPED;
  primary_voltage 14400.0;
  secondary_voltage 120.0;
  resistance 0.01050;
  resistance1 0.02100;
  resistance2 0.02100;
  reactance 0.01224;
  reactance1 0.00612;
  reactance2 0.00612;
  shunt_resistance 111.11;
  shunt_reactance 29.59;
}
object transformer_configuration {
  name XF1_POLETOP_CS_5;
  power_rating 5.00;
  powerA_rating 0.0;
  powerB_rating 0.0;
  powerC_rating 5.00;
  install_type POLETOP;
  connect_type SINGLE_PHASE_CENTER_TAPPED;
  primary_voltage 14400.0;
  secondary_voltage 120.0;
  resistance 0.01050;
  resistance1 0.02100;
  resistance2 0.02100;
  reactance 0.01224;
  reactance1 0.00612;
  reactance2 0.00612;
  shunt_resistance 111.11;
  shunt_reactance 29.59;
}
object transformer_configuration {
  name XF1_POLETOP_CS_100;
  power_rating 100.00;
  powerA_rating 0.0;
  powerB_rating 0.0;
  powerC_rating 100.00;
  install_type POLETOP;
  connect_type SINGLE_PHASE_CENTER_TAPPED;
  primary_voltage 14400.0;
  secondary_voltage 120.0;
  resistance 0.00600;
  resistance1 0.01200;
  resistance2 0.01200;
  reactance 0.01752;
  reactance1 0.00876;
  reactance2 0.00876;
  shunt_resistance 250.00;
  shunt_reactance 68.97;
}
object transformer_configuration {
  name XF1_PADMOUNT_AS_15;
  power_rating 15.00;
  powerA_rating 15.00;
  powerB_rating 0.0;
  powerC_rating 0.0;
  install_type PADMOUNT;
  connect_type SINGLE_PHASE_CENTER_TAPPED;
  primary_voltage 14400.0;
  secondary_voltage 120.0;
  resistance 0.00850;
  resistance1 0.01700;
  resistance2 0.01700;
  reactance 0.01176;
  reactance1 0.00588;
  reactance2 0.00588;
  shunt_resistance 166.67;
  shunt_reactance 39.53;
}
object transformer_configuration {
  name XF1_POLETOP_BS_100;
  power_rating 100.00;
  powerA_rating 0.0;
  powerB_rating 100.00;
  powerC_rating 0.0;
  install_type POLETOP;
  connect_type SINGLE_PHASE_CENTER_TAPPED;
  primary_voltage 14400.0;
  secondary_voltage 120.0;
  resistance 0.00600;
  resistance1 0.01200;
  resistance2 0.01200;
  reactance 0.01752;
  reactance1 0.00876;
  reactance2 0.00876;
  shunt_resistance 250.00;
  shunt_reactance 68.97;
}
object transformer_configuration {
  name XF1_PADMOUNT_AS_5;
  power_rating 5.00;
  powerA_rating 5.00;
  powerB_rating 0.0;
  powerC_rating 0.0;
  install_type PADMOUNT;
  connect_type SINGLE_PHASE_CENTER_TAPPED;
  primary_voltage 14400.0;
  secondary_voltage 120.0;
  resistance 0.01050;
  resistance1 0.02100;
  resistance2 0.02100;
  reactance 0.01224;
  reactance1 0.00612;
  reactance2 0.00612;
  shunt_resistance 111.11;
  shunt_reactance 29.59;
}
object transformer_configuration {
  name XF1_PADMOUNT_BS_5;
  power_rating 5.00;
  powerA_rating 0.0;
  powerB_rating 5.00;
  powerC_rating 0.0;
  install_type PADMOUNT;
  connect_type SINGLE_PHASE_CENTER_TAPPED;
  primary_voltage 14400.0;
  secondary_voltage 120.0;
  resistance 0.01050;
  resistance1 0.02100;
  resistance2 0.02100;
  reactance 0.01224;
  reactance1 0.00612;
  reactance2 0.00612;
  shunt_resistance 111.11;
  shunt_reactance 29.59;
}
object transformer_configuration {
  name XF1_PADMOUNT_CS_5;
  power_rating 5.00;
  powerA_rating 0.0;
  powerB_rating 0.0;
  powerC_rating 5.00;
  install_type PADMOUNT;
  connect_type SINGLE_PHASE_CENTER_TAPPED;
  primary_voltage 14400.0;
  secondary_voltage 120.0;
  resistance 0.01050;
  resistance1 0.02100;
  resistance2 0.02100;
  reactance 0.01224;
  reactance1 0.00612;
  reactance2 0.00612;
  shunt_resistance 111.11;
  shunt_reactance 29.59;
}
object transformer_configuration {
  name XF1_PADMOUNT_AS_37p5;
  power_rating 37.50;
  powerA_rating 37.50;
  powerB_rating 0.0;
  powerC_rating 0.0;
  install_type PADMOUNT;
  connect_type SINGLE_PHASE_CENTER_TAPPED;
  primary_voltage 14400.0;
  secondary_voltage 120.0;
  resistance 0.00725;
  resistance1 0.01450;
  resistance2 0.01450;
  reactance 0.01320;
  reactance1 0.00660;
  reactance2 0.00660;
  shunt_resistance 212.77;
  shunt_reactance 57.47;
}
object transformer_configuration {
  name XF1_POLETOP_AS_37p5;
  power_rating 37.50;
  powerA_rating 37.50;
  powerB_rating 0.0;
  powerC_rating 0.0;
  install_type POLETOP;
  connect_type SINGLE_PHASE_CENTER_TAPPED;
  primary_voltage 14400.0;
  secondary_voltage 120.0;
  resistance 0.00725;
  resistance1 0.01450;
  resistance2 0.01450;
  reactance 0.01320;
  reactance1 0.00660;
  reactance2 0.00660;
  shunt_resistance 212.77;
  shunt_reactance 57.47;
}
object transformer_configuration {
  name XF1_PADMOUNT_AS_167;
  power_rating 167.00;
  powerA_rating 167.00;
  powerB_rating 0.0;
  powerC_rating 0.0;
  install_type PADMOUNT;
  connect_type SINGLE_PHASE_CENTER_TAPPED;
  primary_voltage 14400.0;
  secondary_voltage 120.0;
  resistance 0.00575;
  resistance1 0.01150;
  resistance2 0.01150;
  reactance 0.02216;
  reactance1 0.01108;
  reactance2 0.01108;
  shunt_resistance 263.16;
  shunt_reactance 60.24;
}
object transformer_configuration {
  name XF1_PADMOUNT_CS_25;
  power_rating 25.00;
  powerA_rating 0.0;
  powerB_rating 0.0;
  powerC_rating 25.00;
  install_type PADMOUNT;
  connect_type SINGLE_PHASE_CENTER_TAPPED;
  primary_voltage 14400.0;
  secondary_voltage 120.0;
  resistance 0.00800;
  resistance1 0.01600;
  resistance2 0.01600;
  reactance 0.01208;
  reactance1 0.00604;
  reactance2 0.00604;
  shunt_resistance 192.31;
  shunt_reactance 51.81;
}
object transformer_configuration {
  name XF1_PADMOUNT_CS_50;
  power_rating 50.00;
  powerA_rating 0.0;
  powerB_rating 0.0;
  powerC_rating 50.00;
  install_type PADMOUNT;
  connect_type SINGLE_PHASE_CENTER_TAPPED;
  primary_voltage 14400.0;
  secondary_voltage 120.0;
  resistance 0.00650;
  resistance1 0.01300;
  resistance2 0.01300;
  reactance 0.01416;
  reactance1 0.00708;
  reactance2 0.00708;
  shunt_resistance 222.22;
  shunt_reactance 64.94;
}
object transformer_configuration {
  name XF1_POLETOP_AS_15;
  power_rating 15.00;
  powerA_rating 15.00;
  powerB_rating 0.0;
  powerC_rating 0.0;
  install_type POLETOP;
  connect_type SINGLE_PHASE_CENTER_TAPPED;
  primary_voltage 14400.0;
  secondary_voltage 120.0;
  resistance 0.00850;
  resistance1 0.01700;
  resistance2 0.01700;
  reactance 0.01176;
  reactance1 0.00588;
  reactance2 0.00588;
  shunt_resistance 166.67;
  shunt_reactance 39.53;
}
object transformer_configuration {
  name XF1_POLETOP_BS_15;
  power_rating 15.00;
  powerA_rating 0.0;
  powerB_rating 15.00;
  powerC_rating 0.0;
  install_type POLETOP;
  connect_type SINGLE_PHASE_CENTER_TAPPED;
  primary_voltage 14400.0;
  secondary_voltage 120.0;
  resistance 0.00850;
  resistance1 0.01700;
  resistance2 0.01700;
  reactance 0.01176;
  reactance1 0.00588;
  reactance2 0.00588;
  shunt_resistance 166.67;
  shunt_reactance 39.53;
}
object transformer_configuration {
  name XF1_POLETOP_CS_15;
  power_rating 15.00;
  powerA_rating 0.0;
  powerB_rating 0.0;
  powerC_rating 15.00;
  install_type POLETOP;
  connect_type SINGLE_PHASE_CENTER_TAPPED;
  primary_voltage 14400.0;
  secondary_voltage 120.0;
  resistance 0.00850;
  resistance1 0.01700;
  resistance2 0.01700;
  reactance 0.01176;
  reactance1 0.00588;
  reactance2 0.00588;
  shunt_resistance 166.67;
  shunt_reactance 39.53;
}
object transformer_configuration {
  name XF1_POLETOP_BS_37p5;
  power_rating 37.50;
  powerA_rating 0.0;
  powerB_rating 37.50;
  powerC_rating 0.0;
  install_type POLETOP;
  connect_type SINGLE_PHASE_CENTER_TAPPED;
  primary_voltage 14400.0;
  secondary_voltage 120.0;
  resistance 0.00725;
  resistance1 0.01450;
  resistance2 0.01450;
  reactance 0.01320;
  reactance1 0.00660;
  reactance2 0.00660;
  shunt_resistance 212.77;
  shunt_reactance 57.47;
}
object transformer_configuration {
  name XF1_POLETOP_AS_75;
  power_rating 75.00;
  powerA_rating 75.00;
  powerB_rating 0.0;
  powerC_rating 0.0;
  install_type POLETOP;
  connect_type SINGLE_PHASE_CENTER_TAPPED;
  primary_voltage 14400.0;
  secondary_voltage 120.0;
  resistance 0.00625;
  resistance1 0.01250;
  resistance2 0.01250;
  reactance 0.01352;
  reactance1 0.00676;
  reactance2 0.00676;
  shunt_resistance 238.10;
  shunt_reactance 67.11;
}
object transformer_configuration {
  name XF1_PADMOUNT_CS_15;
  power_rating 15.00;
  powerA_rating 0.0;
  powerB_rating 0.0;
  powerC_rating 15.00;
  install_type PADMOUNT;
  connect_type SINGLE_PHASE_CENTER_TAPPED;
  primary_voltage 14400.0;
  secondary_voltage 120.0;
  resistance 0.00850;
  resistance1 0.01700;
  resistance2 0.01700;
  reactance 0.01176;
  reactance1 0.00588;
  reactance2 0.00588;
  shunt_resistance 166.67;
  shunt_reactance 39.53;
}
object transformer_configuration {
  name XF1_POLETOP_CS_75;
  power_rating 75.00;
  powerA_rating 0.0;
  powerB_rating 0.0;
  powerC_rating 75.00;
  install_type POLETOP;
  connect_type SINGLE_PHASE_CENTER_TAPPED;
  primary_voltage 14400.0;
  secondary_voltage 120.0;
  resistance 0.00625;
  resistance1 0.01250;
  resistance2 0.01250;
  reactance 0.01352;
  reactance1 0.00676;
  reactance2 0.00676;
  shunt_resistance 238.10;
  shunt_reactance 67.11;
}
object transformer_configuration {
  name XF1_POLETOP_CS_167;
  power_rating 167.00;
  powerA_rating 0.0;
  powerB_rating 0.0;
  powerC_rating 167.00;
  install_type POLETOP;
  connect_type SINGLE_PHASE_CENTER_TAPPED;
  primary_voltage 14400.0;
  secondary_voltage 120.0;
  resistance 0.00575;
  resistance1 0.01150;
  resistance2 0.01150;
  reactance 0.02216;
  reactance1 0.01108;
  reactance2 0.01108;
  shunt_resistance 263.16;
  shunt_reactance 60.24;
}
object transformer_configuration {
  name XF1_POLETOP_BS_75;
  power_rating 75.00;
  powerA_rating 0.0;
  powerB_rating 75.00;
  powerC_rating 0.0;
  install_type POLETOP;
  connect_type SINGLE_PHASE_CENTER_TAPPED;
  primary_voltage 14400.0;
  secondary_voltage 120.0;
  resistance 0.00625;
  resistance1 0.01250;
  resistance2 0.01250;
  reactance 0.01352;
  reactance1 0.00676;
  reactance2 0.00676;
  shunt_resistance 238.10;
  shunt_reactance 67.11;
}
object transformer_configuration {
  name XF1_PADMOUNT_CS_75;
  power_rating 75.00;
  powerA_rating 0.0;
  powerB_rating 0.0;
  powerC_rating 75.00;
  install_type PADMOUNT;
  connect_type SINGLE_PHASE_CENTER_TAPPED;
  primary_voltage 14400.0;
  secondary_voltage 120.0;
  resistance 0.00625;
  resistance1 0.01250;
  resistance2 0.01250;
  reactance 0.01352;
  reactance1 0.00676;
  reactance2 0.00676;
  shunt_resistance 238.10;
  shunt_reactance 67.11;
}
object transformer_configuration {
  name XF1_POLETOP_AS_100;
  power_rating 100.00;
  powerA_rating 100.00;
  powerB_rating 0.0;
  powerC_rating 0.0;
  install_type POLETOP;
  connect_type SINGLE_PHASE_CENTER_TAPPED;
  primary_voltage 14400.0;
  secondary_voltage 120.0;
  resistance 0.00600;
  resistance1 0.01200;
  resistance2 0.01200;
  reactance 0.01752;
  reactance1 0.00876;
  reactance2 0.00876;
  shunt_resistance 250.00;
  shunt_reactance 68.97;
}
object transformer_configuration {
  name XF1_PADMOUNT_AS_25;
  power_rating 25.00;
  powerA_rating 25.00;
  powerB_rating 0.0;
  powerC_rating 0.0;
  install_type PADMOUNT;
  connect_type SINGLE_PHASE_CENTER_TAPPED;
  primary_voltage 14400.0;
  secondary_voltage 120.0;
  resistance 0.00800;
  resistance1 0.01600;
  resistance2 0.01600;
  reactance 0.01208;
  reactance1 0.00604;
  reactance2 0.00604;
  shunt_resistance 192.31;
  shunt_reactance 51.81;
}
object transformer_configuration {
  name XF1_PADMOUNT_BS_25;
  power_rating 25.00;
  powerA_rating 0.0;
  powerB_rating 25.00;
  powerC_rating 0.0;
  install_type PADMOUNT;
  connect_type SINGLE_PHASE_CENTER_TAPPED;
  primary_voltage 14400.0;
  secondary_voltage 120.0;
  resistance 0.00800;
  resistance1 0.01600;
  resistance2 0.01600;
  reactance 0.01208;
  reactance1 0.00604;
  reactance2 0.00604;
  shunt_resistance 192.31;
  shunt_reactance 51.81;
}
object transformer_configuration {
  name XF1_POLETOP_CS_50;
  power_rating 50.00;
  powerA_rating 0.0;
  powerB_rating 0.0;
  powerC_rating 50.00;
  install_type POLETOP;
  connect_type SINGLE_PHASE_CENTER_TAPPED;
  primary_voltage 14400.0;
  secondary_voltage 120.0;
  resistance 0.00650;
  resistance1 0.01300;
  resistance2 0.01300;
  reactance 0.01416;
  reactance1 0.00708;
  reactance2 0.00708;
  shunt_resistance 222.22;
  shunt_reactance 64.94;
}
object transformer_configuration {
  name XF1_PADMOUNT_BS_75;
  power_rating 75.00;
  powerA_rating 0.0;
  powerB_rating 75.00;
  powerC_rating 0.0;
  install_type PADMOUNT;
  connect_type SINGLE_PHASE_CENTER_TAPPED;
  primary_voltage 14400.0;
  secondary_voltage 120.0;
  resistance 0.00625;
  resistance1 0.01250;
  resistance2 0.01250;
  reactance 0.01352;
  reactance1 0.00676;
  reactance2 0.00676;
  shunt_resistance 238.10;
  shunt_reactance 67.11;
}
object transformer_configuration {
  name XF1_PADMOUNT_BS_37p5;
  power_rating 37.50;
  powerA_rating 0.0;
  powerB_rating 37.50;
  powerC_rating 0.0;
  install_type PADMOUNT;
  connect_type SINGLE_PHASE_CENTER_TAPPED;
  primary_voltage 14400.0;
  secondary_voltage 120.0;
  resistance 0.00725;
  resistance1 0.01450;
  resistance2 0.01450;
  reactance 0.01320;
  reactance1 0.00660;
  reactance2 0.00660;
  shunt_resistance 212.77;
  shunt_reactance 57.47;
}
object transformer_configuration {
  name XF1_PADMOUNT_CS_37p5;
  power_rating 37.50;
  powerA_rating 0.0;
  powerB_rating 0.0;
  powerC_rating 37.50;
  install_type PADMOUNT;
  connect_type SINGLE_PHASE_CENTER_TAPPED;
  primary_voltage 14400.0;
  secondary_voltage 120.0;
  resistance 0.00725;
  resistance1 0.01450;
  resistance2 0.01450;
  reactance 0.01320;
  reactance1 0.00660;
  reactance2 0.00660;
  shunt_resistance 212.77;
  shunt_reactance 57.47;
}
object transformer_configuration {
  name XF1_PADMOUNT_AS_50;
  power_rating 50.00;
  powerA_rating 50.00;
  powerB_rating 0.0;
  powerC_rating 0.0;
  install_type PADMOUNT;
  connect_type SINGLE_PHASE_CENTER_TAPPED;
  primary_voltage 14400.0;
  secondary_voltage 120.0;
  resistance 0.00650;
  resistance1 0.01300;
  resistance2 0.01300;
  reactance 0.01416;
  reactance1 0.00708;
  reactance2 0.00708;
  shunt_resistance 222.22;
  shunt_reactance 64.94;
}
object transformer_configuration {
  name XF1_PADMOUNT_AS_10;
  power_rating 10.00;
  powerA_rating 10.00;
  powerB_rating 0.0;
  powerC_rating 0.0;
  install_type PADMOUNT;
  connect_type SINGLE_PHASE_CENTER_TAPPED;
  primary_voltage 14400.0;
  secondary_voltage 120.0;
  resistance 0.00950;
  resistance1 0.01900;
  resistance2 0.01900;
  reactance 0.01040;
  reactance1 0.00520;
  reactance2 0.00520;
  shunt_resistance 147.06;
  shunt_reactance 34.25;
}
object transformer_configuration {
  name XF1_PADMOUNT_BS_10;
  power_rating 10.00;
  powerA_rating 0.0;
  powerB_rating 10.00;
  powerC_rating 0.0;
  install_type PADMOUNT;
  connect_type SINGLE_PHASE_CENTER_TAPPED;
  primary_voltage 14400.0;
  secondary_voltage 120.0;
  resistance 0.00950;
  resistance1 0.01900;
  resistance2 0.01900;
  reactance 0.01040;
  reactance1 0.00520;
  reactance2 0.00520;
  shunt_resistance 147.06;
  shunt_reactance 34.25;
}
object transformer_configuration {
  name XF1_PADMOUNT_CS_10;
  power_rating 10.00;
  powerA_rating 0.0;
  powerB_rating 0.0;
  powerC_rating 10.00;
  install_type PADMOUNT;
  connect_type SINGLE_PHASE_CENTER_TAPPED;
  primary_voltage 14400.0;
  secondary_voltage 120.0;
  resistance 0.00950;
  resistance1 0.01900;
  resistance2 0.01900;
  reactance 0.01040;
  reactance1 0.00520;
  reactance2 0.00520;
  shunt_resistance 147.06;
  shunt_reactance 34.25;
}
object transformer_configuration {
  name XF1_POLETOP_CS_37p5;
  power_rating 37.50;
  powerA_rating 0.0;
  powerB_rating 0.0;
  powerC_rating 37.50;
  install_type POLETOP;
  connect_type SINGLE_PHASE_CENTER_TAPPED;
  primary_voltage 14400.0;
  secondary_voltage 120.0;
  resistance 0.00725;
  resistance1 0.01450;
  resistance2 0.01450;
  reactance 0.01320;
  reactance1 0.00660;
  reactance2 0.00660;
  shunt_resistance 212.77;
  shunt_reactance 57.47;
}
object transformer_configuration {
  name XF1_PADMOUNT_BS_15;
  power_rating 15.00;
  powerA_rating 0.0;
  powerB_rating 15.00;
  powerC_rating 0.0;
  install_type PADMOUNT;
  connect_type SINGLE_PHASE_CENTER_TAPPED;
  primary_voltage 14400.0;
  secondary_voltage 120.0;
  resistance 0.00850;
  resistance1 0.01700;
  resistance2 0.01700;
  reactance 0.01176;
  reactance1 0.00588;
  reactance2 0.00588;
  shunt_resistance 166.67;
  shunt_reactance 39.53;
}
object transformer_configuration {
  name XF1_POLETOP_AS_25;
  power_rating 25.00;
  powerA_rating 25.00;
  powerB_rating 0.0;
  powerC_rating 0.0;
  install_type POLETOP;
  connect_type SINGLE_PHASE_CENTER_TAPPED;
  primary_voltage 14400.0;
  secondary_voltage 120.0;
  resistance 0.00800;
  resistance1 0.01600;
  resistance2 0.01600;
  reactance 0.01208;
  reactance1 0.00604;
  reactance2 0.00604;
  shunt_resistance 192.31;
  shunt_reactance 51.81;
}
object transformer_configuration {
  name XF1_POLETOP_BS_25;
  power_rating 25.00;
  powerA_rating 0.0;
  powerB_rating 25.00;
  powerC_rating 0.0;
  install_type POLETOP;
  connect_type SINGLE_PHASE_CENTER_TAPPED;
  primary_voltage 14400.0;
  secondary_voltage 120.0;
  resistance 0.00800;
  resistance1 0.01600;
  resistance2 0.01600;
  reactance 0.01208;
  reactance1 0.00604;
  reactance2 0.00604;
  shunt_resistance 192.31;
  shunt_reactance 51.81;
}
object transformer_configuration {
  name XF1_POLETOP_CS_25;
  power_rating 25.00;
  powerA_rating 0.0;
  powerB_rating 0.0;
  powerC_rating 25.00;
  install_type POLETOP;
  connect_type SINGLE_PHASE_CENTER_TAPPED;
  primary_voltage 14400.0;
  secondary_voltage 120.0;
  resistance 0.00800;
  resistance1 0.01600;
  resistance2 0.01600;
  reactance 0.01208;
  reactance1 0.00604;
  reactance2 0.00604;
  shunt_resistance 192.31;
  shunt_reactance 51.81;
}
object transformer_configuration {
  name XF1_PADMOUNT_CS_100;
  power_rating 100.00;
  powerA_rating 0.0;
  powerB_rating 0.0;
  powerC_rating 100.00;
  install_type PADMOUNT;
  connect_type SINGLE_PHASE_CENTER_TAPPED;
  primary_voltage 14400.0;
  secondary_voltage 120.0;
  resistance 0.00600;
  resistance1 0.01200;
  resistance2 0.01200;
  reactance 0.01752;
  reactance1 0.00876;
  reactance2 0.00876;
  shunt_resistance 250.00;
  shunt_reactance 68.97;
}
object transformer_configuration {
  name XF1_POLETOP_BS_50;
  power_rating 50.00;
  powerA_rating 0.0;
  powerB_rating 50.00;
  powerC_rating 0.0;
  install_type POLETOP;
  connect_type SINGLE_PHASE_CENTER_TAPPED;
  primary_voltage 14400.0;
  secondary_voltage 120.0;
  resistance 0.00650;
  resistance1 0.01300;
  resistance2 0.01300;
  reactance 0.01416;
  reactance1 0.00708;
  reactance2 0.00708;
  shunt_resistance 222.22;
  shunt_reactance 64.94;
}
object transformer_configuration {
  name XF1_PADMOUNT_BS_50;
  power_rating 50.00;
  powerA_rating 0.0;
  powerB_rating 50.00;
  powerC_rating 0.0;
  install_type PADMOUNT;
  connect_type SINGLE_PHASE_CENTER_TAPPED;
  primary_voltage 14400.0;
  secondary_voltage 120.0;
  resistance 0.00650;
  resistance1 0.01300;
  resistance2 0.01300;
  reactance 0.01416;
  reactance1 0.00708;
  reactance2 0.00708;
  shunt_resistance 222.22;
  shunt_reactance 64.94;
}
object transformer_configuration {
  name XF1_PADMOUNT_BS_100;
  power_rating 100.00;
  powerA_rating 0.0;
  powerB_rating 100.00;
  powerC_rating 0.0;
  install_type PADMOUNT;
  connect_type SINGLE_PHASE_CENTER_TAPPED;
  primary_voltage 14400.0;
  secondary_voltage 120.0;
  resistance 0.00600;
  resistance1 0.01200;
  resistance2 0.01200;
  reactance 0.01752;
  reactance1 0.00876;
  reactance2 0.00876;
  shunt_resistance 250.00;
  shunt_reactance 68.97;
}
object transformer_configuration {
  name XF1_POLETOP_BS_250;
  power_rating 250.00;
  powerA_rating 0.0;
  powerB_rating 250.00;
  powerC_rating 0.0;
  install_type POLETOP;
  connect_type SINGLE_PHASE_CENTER_TAPPED;
  primary_voltage 14400.0;
  secondary_voltage 120.0;
  resistance 0.00550;
  resistance1 0.01100;
  resistance2 0.01100;
  reactance 0.03080;
  reactance1 0.01540;
  reactance2 0.01540;
  shunt_resistance 277.78;
  shunt_reactance 55.25;
}
object transformer_configuration {
  name XF1_POLETOP_AS_50;
  power_rating 50.00;
  powerA_rating 50.00;
  powerB_rating 0.0;
  powerC_rating 0.0;
  install_type POLETOP;
  connect_type SINGLE_PHASE_CENTER_TAPPED;
  primary_voltage 14400.0;
  secondary_voltage 120.0;
  resistance 0.00650;
  resistance1 0.01300;
  resistance2 0.01300;
  reactance 0.01416;
  reactance1 0.00708;
  reactance2 0.00708;
  shunt_resistance 222.22;
  shunt_reactance 64.94;
}
object transformer_configuration {
  name XF1_PADMOUNT_CS_167;
  power_rating 167.00;
  powerA_rating 0.0;
  powerB_rating 0.0;
  powerC_rating 167.00;
  install_type PADMOUNT;
  connect_type SINGLE_PHASE_CENTER_TAPPED;
  primary_voltage 14400.0;
  secondary_voltage 120.0;
  resistance 0.00575;
  resistance1 0.01150;
  resistance2 0.01150;
  reactance 0.02216;
  reactance1 0.01108;
  reactance2 0.01108;
  shunt_resistance 263.16;
  shunt_reactance 60.24;
}
object transformer_configuration {
  name XF3_POLETOP_ABCN_750;
  power_rating 750.00;
  powerA_rating 250.00;
  powerB_rating 250.00;
  powerC_rating 250.00;
  install_type POLETOP;
  connect_type WYE_WYE;
  primary_voltage 24900.0;
  secondary_voltage 480.0;
  resistance 0.00970;
  reactance 0.05110;
  shunt_resistance 227.27;
  shunt_reactance 52.91;
}
object transformer_configuration {
  name XF3_POLETOP_ABCN_1000;
  power_rating 1000.00;
  powerA_rating 333.33;
  powerB_rating 333.33;
  powerC_rating 333.33;
  install_type POLETOP;
  connect_type WYE_WYE;
  primary_voltage 24900.0;
  secondary_voltage 480.0;
  resistance 0.00850;
  reactance 0.05690;
  shunt_resistance 232.56;
  shunt_reactance 60.61;
}
object transformer_configuration {
  name XF3_PADMOUNT_ABCN_112p5;
  power_rating 112.50;
  powerA_rating 37.50;
  powerB_rating 37.50;
  powerC_rating 37.50;
  install_type PADMOUNT;
  connect_type WYE_WYE;
  primary_voltage 24900.0;
  secondary_voltage 480.0;
  resistance 0.01450;
  reactance 0.02850;
  shunt_resistance 169.49;
  shunt_reactance 33.44;
}
object transformer_configuration {
  name XF3_POLETOP_ABCN_112p5;
  power_rating 112.50;
  powerA_rating 37.50;
  powerB_rating 37.50;
  powerC_rating 37.50;
  install_type POLETOP;
  connect_type WYE_WYE;
  primary_voltage 24900.0;
  secondary_voltage 480.0;
  resistance 0.01450;
  reactance 0.02850;
  shunt_resistance 169.49;
  shunt_reactance 33.44;
}
object transformer_configuration {
  name XF3_POLETOP_ABCN_45;
  power_rating 45.00;
  powerA_rating 15.00;
  powerB_rating 15.00;
  powerC_rating 15.00;
  install_type POLETOP;
  connect_type WYE_WYE;
  primary_voltage 24900.0;
  secondary_voltage 208.0;
  resistance 0.01750;
  reactance 0.02120;
  shunt_resistance 142.86;
  shunt_reactance 25.38;
}
object transformer_configuration {
  name XF1_POLETOP_CN_10;
  power_rating 10.00;
  powerA_rating 0.0;
  powerB_rating 0.0;
  powerC_rating 10.00;
  install_type POLETOP;
  connect_type WYE_WYE;
  primary_voltage 24900.0;
  secondary_voltage 208.0;
  resistance 0.01900;
  reactance 0.01770;
  shunt_resistance 126.58;
  shunt_reactance 22.57;
}
object transformer_configuration {
  name XF3_POLETOP_ABCN_500;
  power_rating 500.00;
  powerA_rating 166.67;
  powerB_rating 166.67;
  powerC_rating 166.67;
  install_type POLETOP;
  connect_type WYE_WYE;
  primary_voltage 24900.0;
  secondary_voltage 480.0;
  resistance 0.01100;
  reactance 0.04880;
  shunt_resistance 222.22;
  shunt_reactance 44.25;
}
object transformer_configuration {
  name XF1_POLETOP_CN_15;
  power_rating 15.00;
  powerA_rating 0.0;
  powerB_rating 0.0;
  powerC_rating 15.00;
  install_type POLETOP;
  connect_type WYE_WYE;
  primary_voltage 24900.0;
  secondary_voltage 208.0;
  resistance 0.01900;
  reactance 0.01770;
  shunt_resistance 126.58;
  shunt_reactance 22.57;
}
object transformer_configuration {
  name XF3_POLETOP_ABCN_300;
  power_rating 300.00;
  powerA_rating 100.00;
  powerB_rating 100.00;
  powerC_rating 100.00;
  install_type POLETOP;
  connect_type WYE_WYE;
  primary_voltage 24900.0;
  secondary_voltage 480.0;
  resistance 0.01300;
  reactance 0.04830;
  shunt_resistance 217.39;
  shunt_reactance 44.44;
}
object transformer_configuration {
  name XF1_POLETOP_CN_50;
  power_rating 50.00;
  powerA_rating 0.0;
  powerB_rating 0.0;
  powerC_rating 50.00;
  install_type POLETOP;
  connect_type WYE_WYE;
  primary_voltage 24900.0;
  secondary_voltage 208.0;
  resistance 0.01600;
  reactance 0.02420;
  shunt_resistance 158.73;
  shunt_reactance 30.86;
}
object transformer_configuration {
  name XF3_PADMOUNT_ABCN_225;
  power_rating 225.00;
  powerA_rating 75.00;
  powerB_rating 75.00;
  powerC_rating 75.00;
  install_type PADMOUNT;
  connect_type WYE_WYE;
  primary_voltage 24900.0;
  secondary_voltage 480.0;
  resistance 0.01300;
  reactance 0.03520;
  shunt_resistance 200.00;
  shunt_reactance 40.00;
}
object transformer_configuration {
  name XF1_PADMOUNT_BN_15;
  power_rating 15.00;
  powerA_rating 0.0;
  powerB_rating 15.00;
  powerC_rating 0.0;
  install_type PADMOUNT;
  connect_type WYE_WYE;
  primary_voltage 24900.0;
  secondary_voltage 208.0;
  resistance 0.01900;
  reactance 0.01770;
  shunt_resistance 126.58;
  shunt_reactance 22.57;
}
object transformer_configuration {
  name XF3_POLETOP_ABCN_30;
  power_rating 30.00;
  powerA_rating 10.00;
  powerB_rating 10.00;
  powerC_rating 10.00;
  install_type POLETOP;
  connect_type WYE_WYE;
  primary_voltage 24900.0;
  secondary_voltage 208.0;
  resistance 0.01900;
  reactance 0.01770;
  shunt_resistance 126.58;
  shunt_reactance 22.57;
}
object transformer_configuration {
  name XF1_PADMOUNT_CN_10;
  power_rating 10.00;
  powerA_rating 0.0;
  powerB_rating 0.0;
  powerC_rating 10.00;
  install_type PADMOUNT;
  connect_type WYE_WYE;
  primary_voltage 24900.0;
  secondary_voltage 208.0;
  resistance 0.01900;
  reactance 0.01770;
  shunt_resistance 126.58;
  shunt_reactance 22.57;
}
object transformer_configuration {
  name XF3_PADMOUNT_ABCN_150;
  power_rating 150.00;
  powerA_rating 50.00;
  powerB_rating 50.00;
  powerC_rating 50.00;
  install_type PADMOUNT;
  connect_type WYE_WYE;
  primary_voltage 24900.0;
  secondary_voltage 480.0;
  resistance 0.01300;
  reactance 0.03250;
  shunt_resistance 185.19;
  shunt_reactance 36.36;
}
object transformer_configuration {
  name XF3_POLETOP_ABCN_150;
  power_rating 150.00;
  powerA_rating 50.00;
  powerB_rating 50.00;
  powerC_rating 50.00;
  install_type POLETOP;
  connect_type WYE_WYE;
  primary_voltage 24900.0;
  secondary_voltage 480.0;
  resistance 0.01300;
  reactance 0.03250;
  shunt_resistance 185.19;
  shunt_reactance 36.36;
}
object transformer_configuration {
  name XF1_PADMOUNT_CN_37p5;
  power_rating 37.50;
  powerA_rating 0.0;
  powerB_rating 0.0;
  powerC_rating 37.50;
  install_type PADMOUNT;
  connect_type WYE_WYE;
  primary_voltage 24900.0;
  secondary_voltage 208.0;
  resistance 0.01750;
  reactance 0.02120;
  shunt_resistance 142.86;
  shunt_reactance 25.38;
}
object transformer_configuration {
  name XF3_POLETOP_ABCN_75;
  power_rating 75.00;
  powerA_rating 25.00;
  powerB_rating 25.00;
  powerC_rating 25.00;
  install_type POLETOP;
  connect_type WYE_WYE;
  primary_voltage 24900.0;
  secondary_voltage 208.0;
  resistance 0.01600;
  reactance 0.02420;
  shunt_resistance 158.73;
  shunt_reactance 30.86;
}
object transformer_configuration {
  name XF3_PADMOUNT_ABCN_30;
  power_rating 30.00;
  powerA_rating 10.00;
  powerB_rating 10.00;
  powerC_rating 10.00;
  install_type PADMOUNT;
  connect_type WYE_WYE;
  primary_voltage 24900.0;
  secondary_voltage 208.0;
  resistance 0.01900;
  reactance 0.01770;
  shunt_resistance 126.58;
  shunt_reactance 22.57;
}
object transformer_configuration {
  name XF3_PADMOUNT_ABCN_45;
  power_rating 45.00;
  powerA_rating 15.00;
  powerB_rating 15.00;
  powerC_rating 15.00;
  install_type PADMOUNT;
  connect_type WYE_WYE;
  primary_voltage 24900.0;
  secondary_voltage 208.0;
  resistance 0.01750;
  reactance 0.02120;
  shunt_resistance 142.86;
  shunt_reactance 25.38;
}
object transformer_configuration {
  name XF1_PADMOUNT_CN_25;
  power_rating 25.00;
  powerA_rating 0.0;
  powerB_rating 0.0;
  powerC_rating 25.00;
  install_type PADMOUNT;
  connect_type WYE_WYE;
  primary_voltage 24900.0;
  secondary_voltage 208.0;
  resistance 0.01900;
  reactance 0.01770;
  shunt_resistance 126.58;
  shunt_reactance 22.57;
}
object transformer_configuration {
  name XF3_PADMOUNT_ABCN_750;
  power_rating 750.00;
  powerA_rating 250.00;
  powerB_rating 250.00;
  powerC_rating 250.00;
  install_type PADMOUNT;
  connect_type WYE_WYE;
  primary_voltage 24900.0;
  secondary_voltage 480.0;
  resistance 0.00970;
  reactance 0.05110;
  shunt_resistance 227.27;
  shunt_reactance 52.91;
}
object transformer_configuration {
  name XF1_PADMOUNT_CN_50;
  power_rating 50.00;
  powerA_rating 0.0;
  powerB_rating 0.0;
  powerC_rating 50.00;
  install_type PADMOUNT;
  connect_type WYE_WYE;
  primary_voltage 24900.0;
  secondary_voltage 208.0;
  resistance 0.01600;
  reactance 0.02420;
  shunt_resistance 158.73;
  shunt_reactance 30.86;
}
object transformer_configuration {
  name XF1_POLETOP_AN_50;
  power_rating 50.00;
  powerA_rating 50.00;
  powerB_rating 0.0;
  powerC_rating 0.0;
  install_type POLETOP;
  connect_type WYE_WYE;
  primary_voltage 24900.0;
  secondary_voltage 208.0;
  resistance 0.01600;
  reactance 0.02420;
  shunt_resistance 158.73;
  shunt_reactance 30.86;
}
object transformer_configuration {
  name XF3_PADMOUNT_ABCN_1500;
  power_rating 1500.00;
  powerA_rating 500.00;
  powerB_rating 500.00;
  powerC_rating 500.00;
  install_type PADMOUNT;
  connect_type WYE_WYE;
  primary_voltage 24900.0;
  secondary_voltage 480.0;
  resistance 0.00780;
  reactance 0.05700;
  shunt_resistance 256.41;
  shunt_reactance 66.23;
}
object transformer_configuration {
  name XF3_POLETOP_ABCN_1500;
  power_rating 1500.00;
  powerA_rating 500.00;
  powerB_rating 500.00;
  powerC_rating 500.00;
  install_type POLETOP;
  connect_type WYE_WYE;
  primary_voltage 24900.0;
  secondary_voltage 480.0;
  resistance 0.00780;
  reactance 0.05700;
  shunt_resistance 256.41;
  shunt_reactance 66.23;
}
object transformer_configuration {
  name XF3_POLETOP_ABCN_225;
  power_rating 225.00;
  powerA_rating 75.00;
  powerB_rating 75.00;
  powerC_rating 75.00;
  install_type POLETOP;
  connect_type WYE_WYE;
  primary_voltage 24900.0;
  secondary_voltage 480.0;
  resistance 0.01300;
  reactance 0.03520;
  shunt_resistance 200.00;
  shunt_reactance 40.00;
}
object transformer_configuration {
  name XF1_POLETOP_CN_25;
  power_rating 25.00;
  powerA_rating 0.0;
  powerB_rating 0.0;
  powerC_rating 25.00;
  install_type POLETOP;
  connect_type WYE_WYE;
  primary_voltage 24900.0;
  secondary_voltage 208.0;
  resistance 0.01900;
  reactance 0.01770;
  shunt_resistance 126.58;
  shunt_reactance 22.57;
}
object transformer_configuration {
  name XF1_POLETOP_CN_37p5;
  power_rating 37.50;
  powerA_rating 0.0;
  powerB_rating 0.0;
  powerC_rating 37.50;
  install_type POLETOP;
  connect_type WYE_WYE;
  primary_voltage 24900.0;
  secondary_voltage 208.0;
  resistance 0.01750;
  reactance 0.02120;
  shunt_resistance 142.86;
  shunt_reactance 25.38;
}
object transformer_configuration {
  name XF3_PADMOUNT_ABCN_300;
  power_rating 300.00;
  powerA_rating 100.00;
  powerB_rating 100.00;
  powerC_rating 100.00;
  install_type PADMOUNT;
  connect_type WYE_WYE;
  primary_voltage 24900.0;
  secondary_voltage 480.0;
  resistance 0.01300;
  reactance 0.04830;
  shunt_resistance 217.39;
  shunt_reactance 44.44;
}
object transformer_configuration {
  name XF3_POLETOP_ABCN_2500;
  power_rating 2500.00;
  powerA_rating 833.33;
  powerB_rating 833.33;
  powerC_rating 833.33;
  install_type POLETOP;
  connect_type WYE_WYE;
  primary_voltage 24900.0;
  secondary_voltage 480.0;
  resistance 0.00700;
  reactance 0.05710;
  shunt_resistance 285.71;
  shunt_reactance 73.53;
}
object transformer_configuration {
  name XF3_PADMOUNT_ABCN_75;
  power_rating 75.00;
  powerA_rating 25.00;
  powerB_rating 25.00;
  powerC_rating 25.00;
  install_type PADMOUNT;
  connect_type WYE_WYE;
  primary_voltage 24900.0;
  secondary_voltage 208.0;
  resistance 0.01600;
  reactance 0.02420;
  shunt_resistance 158.73;
  shunt_reactance 30.86;
}
object triplex_line_conductor {
  name triplex_4/0_aa;
  resistance 0.48;
  geometric_mean_radius 0.0158;
  rating.summer.continuous 1000.0;
  rating.summer.emergency 1000.0;
  rating.winter.continuous 1000.0;
  rating.winter.emergency 1000.0;
}
object triplex_line_configuration {
  name tpx_config;
  conductor_1 triplex_4/0_aa;
  conductor_2 triplex_4/0_aa;
  conductor_N triplex_4/0_aa;
  insulation_thickness 0.08;
  diameter 0.522;
}
object regulator_configuration {
  name feeder_reg_cfg;
  Control OUTPUT_VOLTAGE;
  band_center 14975.0;
  band_width 240;
  connect_type WYE_WYE;
  time_delay 30;
  raise_taps 16;
  lower_taps 16;
  regulation 0.10;
  tap_pos_A 0;
  tap_pos_B 0;
  tap_pos_C 0;
}
object overhead_line_conductor {
  name ID_720;
  rating.summer.continuous 530.0;
  geometric_mean_radius 0.02300 ft;
  resistance 0.30300;
}
object overhead_line_conductor {
  name ID_721;
  rating.summer.continuous 149.0;
  geometric_mean_radius 0.00663 ft;
  resistance 1.50000;
}
object overhead_line_conductor {
  name ID_722;
  rating.summer.continuous 180.0;
  geometric_mean_radius 0.00418 ft;
  resistance 1.62570;
}
object overhead_line_conductor {
  name ID_723;
  rating.summer.continuous 360.0;
  geometric_mean_radius 0.01033 ft;
  resistance 0.47600;
}
object overhead_line_conductor {
  name ID_724;
  rating.summer.continuous 84.0;
  geometric_mean_radius 0.00417 ft;
  resistance 3.84030;
}
object overhead_line_conductor {
  name ID_725;
  rating.summer.continuous 256.0;
  geometric_mean_radius 0.01200 ft;
  resistance 0.16600;
}
object overhead_line_conductor {
  name ID_726;
  rating.summer.continuous 105.0;
  geometric_mean_radius 0.00394 ft;
  resistance 3.95941;
}
object overhead_line_conductor {
  name ID_727;
  rating.summer.continuous 230.0;
  geometric_mean_radius 0.00446 ft;
  resistance 1.04100;
}
object overhead_line_conductor {
  name ID_728;
  rating.summer.continuous 878.0;
  geometric_mean_radius 0.03280 ft;
  resistance 0.13100;
}
object line_spacing {
  name ID_98;
  distance_AN 6.0 in;
}
object line_spacing {
  name ID_99;
  distance_AB 59.0 in;
  distance_BC 59.0 in;
  distance_AC 59.0 in;
  distance_AN 59.0 in;
  distance_BN 59.0 in;
  distance_CN 59.0 in;
}
object line_spacing {
  name ID_100;
  distance_AB 6.0 in;
  distance_BC 6.0 in;
  distance_AC 6.0 in;
  distance_AN 6.0 in;
  distance_BN 6.0 in;
  distance_CN 6.0 in;
}
object line_spacing {
  name ID_101;
  distance_BN 53.0 in;
}
object line_spacing {
  name ID_102;
  distance_CN 6.0 in;
}
object line_spacing {
  name ID_103;
  distance_BN 6.0 in;
}
object line_spacing {
  name ID_104;
  distance_CN 53.0 in;
}
object line_configuration {
  name ID_65;
  conductor_A ID_2049;
  conductor_N ID_2049;
  spacing ID_98;
}
object line_configuration {
  name ID_66;
  conductor_A ID_720;
  conductor_B ID_720;
  conductor_C ID_720;
  conductor_N ID_720;
  spacing ID_99;
}
object line_configuration {
  name ID_67;
  conductor_A ID_2050;
  conductor_N ID_2050;
  spacing ID_98;
}
object line_configuration {
  name ID_68;
  conductor_A ID_720;
  conductor_B ID_720;
  conductor_C ID_720;
  conductor_N ID_720;
  spacing ID_99;
}
object line_configuration {
  name ID_69;
  conductor_A ID_2051;
  conductor_B ID_2051;
  conductor_C ID_2051;
  conductor_N ID_2051;
  spacing ID_100;
}
object line_configuration {
  name ID_70;
  conductor_A ID_721;
  conductor_B ID_721;
  conductor_C ID_721;
  conductor_N ID_721;
  spacing ID_100;
}
object line_configuration {
  name ID_71;
  conductor_B ID_722;
  conductor_N ID_722;
  spacing ID_101;
}
object line_configuration {
  name ID_72;
  conductor_C ID_2049;
  conductor_N ID_2049;
  spacing ID_102;
}
object line_configuration {
  name ID_73;
  conductor_A ID_722;
  conductor_B ID_722;
  conductor_C ID_722;
  conductor_N ID_722;
  spacing ID_99;
}
object line_configuration {
  name ID_74;
  conductor_B ID_2050;
  conductor_N ID_2050;
  spacing ID_103;
}
object line_configuration {
  name ID_75;
  conductor_C ID_722;
  conductor_N ID_722;
  spacing ID_104;
}
object line_configuration {
  name ID_76;
  conductor_B ID_2049;
  conductor_N ID_2049;
  spacing ID_103;
}
object line_configuration {
  name ID_77;
  conductor_A ID_2049;
  conductor_N ID_2049;
  spacing ID_98;
}
object line_configuration {
  name ID_78;
  conductor_A ID_723;
  conductor_B ID_723;
  conductor_C ID_723;
  conductor_N ID_723;
  spacing ID_99;
}
object line_configuration {
  name ID_79;
  conductor_A ID_723;
  conductor_B ID_723;
  conductor_C ID_723;
  conductor_N ID_723;
  spacing ID_99;
}
object line_configuration {
  name ID_80;
  conductor_A ID_2050;
  conductor_B ID_2050;
  conductor_C ID_2050;
  conductor_N ID_2050;
  spacing ID_100;
}
object line_configuration {
  name ID_81;
  conductor_C ID_2050;
  conductor_N ID_2050;
  spacing ID_102;
}
object line_configuration {
  name ID_82;
  conductor_C ID_724;
  conductor_N ID_724;
  spacing ID_104;
}
object line_configuration {
  name ID_83;
  conductor_C ID_2049;
  conductor_N ID_2049;
  spacing ID_102;
}
object line_configuration {
  name ID_84;
  conductor_A ID_725;
  conductor_B ID_725;
  conductor_C ID_725;
  conductor_N ID_725;
  spacing ID_99;
}
object line_configuration {
  name ID_85;
  conductor_A ID_722;
  conductor_B ID_722;
  conductor_C ID_722;
  conductor_N ID_722;
  spacing ID_99;
}
object line_configuration {
  name ID_86;
  conductor_C ID_726;
  conductor_N ID_726;
  spacing ID_104;
}
object line_configuration {
  name ID_87;
  conductor_C ID_725;
  conductor_N ID_725;
  spacing ID_104;
}
object line_configuration {
  name ID_88;
  conductor_C ID_726;
  conductor_N ID_726;
  spacing ID_104;
}
object line_configuration {
  name ID_89;
  conductor_B ID_723;
  conductor_N ID_723;
  spacing ID_101;
}
object line_configuration {
  name ID_90;
  conductor_A ID_723;
  conductor_B ID_723;
  conductor_C ID_723;
  conductor_N ID_723;
  spacing ID_99;
}
object line_configuration {
  name ID_91;
  conductor_A ID_721;
  conductor_B ID_721;
  conductor_C ID_721;
  conductor_N ID_721;
  spacing ID_99;
}
object line_configuration {
  name ID_92;
  conductor_B ID_721;
  conductor_N ID_721;
  spacing ID_101;
}
object line_configuration {
  name ID_93;
  conductor_B ID_725;
  conductor_N ID_725;
  spacing ID_101;
}
object line_configuration {
  name ID_94;
  conductor_C ID_727;
  conductor_N ID_727;
  spacing ID_104;
}
object line_configuration {
  name ID_95;
  conductor_A ID_720;
  conductor_B ID_720;
  conductor_C ID_720;
  conductor_N ID_720;
  spacing ID_99;
}
object line_configuration {
  name ID_96;
  conductor_A ID_721;
  conductor_B ID_721;
  conductor_C ID_721;
  conductor_N ID_721;
  spacing ID_99;
}
object line_configuration {
  name ID_97;
  conductor_A ID_728;
  conductor_B ID_728;
  conductor_C ID_728;
  conductor_N ID_728;
  spacing ID_99;
}
object triplex_line_conductor {
  name triplex_4/0 AA;
  resistance 0.48;
  geometric_mean_radius 0.0158;
  rating.summer.continuous 1000.0;
  rating.summer.emergency 1000.0;
  rating.winter.continuous 1000.0;
  rating.winter.emergency 1000.0;
}
object triplex_line_configuration {
  name ID_1159;
  conductor_1 triplex_4/0 AA;
  conductor_2 triplex_4/0 AA;
  conductor_N triplex_4/0 AA;
  insulation_thickness 0.08;
  diameter 0.522;
}
object underground_line_conductor {
  name ID_2049;
  rating.summer.continuous 142.0;
  outer_diameter 1.27;
  conductor_gmr 0.01142 ft;
  conductor_diameter 0.362;
  conductor_resistance 0.88704;
  neutral_gmr 0.00208 ft;
  neutral_resistance 14.87;
  neutral_diameter 0.0641;
  neutral_strands 16.0;
  insulation_relative_permitivitty 2.3;
}
object underground_line_conductor {
  name ID_2050;
  rating.summer.continuous 112.0;
  outer_diameter 1.09;
  conductor_gmr 0.0088 ft;
  conductor_diameter 0.292;
  conductor_resistance 1.38336;
  neutral_gmr 0.00208 ft;
  neutral_resistance 14.87;
  neutral_diameter 0.0641;
  neutral_strands 6.0;
  insulation_relative_permitivitty 2.3;
}
object underground_line_conductor {
  name ID_2051;
  rating.summer.continuous 564.0;
  outer_diameter 2.291;
  conductor_gmr 0.03592 ft;
  conductor_diameter 1.117;
  conductor_resistance 0.093456;
  neutral_gmr 0.00330 ft;
  neutral_resistance 5.9026;
  neutral_diameter 0.1019;
  neutral_strands 20.0;
  insulation_relative_permitivitty 2.3;
}
object fuse {
  name R2_25_00_1_fuse_1;
// downstream 271.66 kva on C
  phases ABCN;
  from R2_25_00_1_node_241;
  to R2_25_00_1_node_11;
  current_limit 65;
  status CLOSED;
  mean_replacement_time 3600;
}
object fuse {
  name R2_25_00_1_fuse_2;
// downstream 488.71 kva on ABC
  phases ABCN;
  from R2_25_00_1_node_18;
  to R2_25_00_1_node_12;
  current_limit 40;
  status CLOSED;
  mean_replacement_time 3600;
}
object fuse {
  name R2_25_00_1_fuse_3;
// downstream 756.98 kva on ABC
  phases ABCN;
  from R2_25_00_1_node_128;
  to R2_25_00_1_node_13;
  current_limit 65;
  status CLOSED;
  mean_replacement_time 3600;
}
object fuse {
  name R2_25_00_1_fuse_4;
// downstream 36.04 kva on A
  phases AN;
  from R2_25_00_1_node_284;
  to R2_25_00_1_node_16;
  current_limit 40;
  status CLOSED;
  mean_replacement_time 3600;
}
object fuse {
  name R2_25_00_1_fuse_5;
// downstream 56.49 kva on BS
  phases BN;
  from R2_25_00_1_node_191;
  to R2_25_00_1_node_17;
  current_limit 40;
  status CLOSED;
  mean_replacement_time 3600;
}
object fuse {
  name R2_25_00_1_fuse_6;
// downstream 4171.65 kva on ABCS
  phases ABCN;
  from R2_25_00_1_node_134;
  to R2_25_00_1_node_20;
  current_limit 280;
  status CLOSED;
  mean_replacement_time 3600;
}
object fuse {
  name R2_25_00_1_fuse_7;
// downstream 24.02 kva on AS
  phases AN;
  from R2_25_00_1_node_236;
  to R2_25_00_1_node_34;
  current_limit 40;
  status CLOSED;
  mean_replacement_time 3600;
}
object fuse {
  name R2_25_00_1_fuse_8;
// downstream 213.39 kva on ABC
  phases ABCN;
  from R2_25_00_1_node_141;
  to R2_25_00_1_node_41;
  current_limit 40;
  status CLOSED;
  mean_replacement_time 3600;
}
object fuse {
  name R2_25_00_1_fuse_9;
// downstream 80.58 kva on CS
  phases CN;
  from R2_25_00_1_node_48;
  to R2_25_00_1_node_319;
  current_limit 40;
  status CLOSED;
  mean_replacement_time 3600;
}
object fuse {
  name R2_25_00_1_fuse_10;
// downstream 18.42 kva on CS
  phases CN;
  from R2_25_00_1_node_237;
  to R2_25_00_1_node_49;
  current_limit 40;
  status CLOSED;
  mean_replacement_time 3600;
}
object fuse {
  name R2_25_00_1_fuse_11;
// downstream 2775.20 kva on ABC
  phases ABCN;
  from R2_25_00_1_node_248;
  to R2_25_00_1_node_50;
  current_limit 200;
  status CLOSED;
  mean_replacement_time 3600;
}
object fuse {
  name R2_25_00_1_fuse_12;
// downstream 80.58 kva on CS
  phases CN;
  from R2_25_00_1_node_107;
  to R2_25_00_1_node_52;
  current_limit 40;
  status CLOSED;
  mean_replacement_time 3600;
}
object fuse {
  name R2_25_00_1_fuse_13;
// downstream 1392.28 kva on ABC
  phases ABCN;
  from R2_25_00_1_node_108;
  to R2_25_00_1_node_61;
  current_limit 100;
  status CLOSED;
  mean_replacement_time 3600;
}
object fuse {
  name R2_25_00_1_fuse_14;
// downstream 135.58 kva on BS
  phases BN;
  from R2_25_00_1_node_175;
  to R2_25_00_1_node_65;
  current_limit 40;
  status CLOSED;
  mean_replacement_time 3600;
}
object fuse {
  name R2_25_00_1_fuse_15;
// downstream 24.02 kva on AS
  phases AN;
  from R2_25_00_1_node_66;
  to R2_25_00_1_node_320;
  current_limit 40;
  status CLOSED;
  mean_replacement_time 3600;
}
object fuse {
  name R2_25_00_1_fuse_16;
// downstream 11.30 kva on B
  phases BN;
  from R2_25_00_1_node_45;
  to R2_25_00_1_node_72;
  current_limit 40;
  status CLOSED;
  mean_replacement_time 3600;
}
object fuse {
  name R2_25_00_1_fuse_17;
// downstream 56.49 kva on BS
  phases BN;
  from R2_25_00_1_node_17;
  to R2_25_00_1_node_77;
  current_limit 40;
  status CLOSED;
  mean_replacement_time 3600;
}
object fuse {
  name R2_25_00_1_fuse_18;
// downstream 42.06 kva on ABCS
  phases ABCN;
  from R2_25_00_1_node_287;
  to R2_25_00_1_node_87;
  current_limit 40;
  status CLOSED;
  mean_replacement_time 3600;
}
object fuse {
  name R2_25_00_1_fuse_19;
// downstream 69.40 kva on ABCS
  phases ABCN;
  from R2_25_00_1_node_113;
  to R2_25_00_1_node_101;
  current_limit 40;
  status CLOSED;
  mean_replacement_time 3600;
}
object fuse {
  name R2_25_00_1_fuse_20;
// downstream 428.61 kva on ABC
  phases ABCN;
  from R2_25_00_1_node_223;
  to R2_25_00_1_node_103;
  current_limit 40;
  status CLOSED;
  mean_replacement_time 3600;
}
object fuse {
  name R2_25_00_1_fuse_21;
// downstream 593.10 kva on ABCS
  phases ABCN;
  from R2_25_00_1_node_249;
  to R2_25_00_1_node_118;
  current_limit 40;
  status CLOSED;
  mean_replacement_time 3600;
}
object fuse {
  name R2_25_00_1_fuse_22;
// downstream 998.41 kva on ABC
  phases ABCN;
  from R2_25_00_1_node_222;
  to R2_25_00_1_node_119;
  current_limit 65;
  status CLOSED;
  mean_replacement_time 3600;
}
object fuse {
  name R2_25_00_1_fuse_23;
// downstream 40.67 kva on BS
  phases BN;
  from R2_25_00_1_node_149;
  to R2_25_00_1_node_124;
  current_limit 40;
  status CLOSED;
  mean_replacement_time 3600;
}
object fuse {
  name R2_25_00_1_fuse_24;
// downstream 138.13 kva on CS
  phases CN;
  from R2_25_00_1_node_31;
  to R2_25_00_1_node_125;
  current_limit 40;
  status CLOSED;
  mean_replacement_time 3600;
}
object fuse {
  name R2_25_00_1_fuse_25;
  phases BN;
  from R2_25_00_1_node_206;
  to R2_25_00_1_node_126;
  current_limit 50000;
  status CLOSED;
  mean_replacement_time 3600;
}
object fuse {
  name R2_25_00_1_fuse_26;
// downstream 124.32 kva on C
  phases CN;
  from R2_25_00_1_node_262;
  to R2_25_00_1_node_132;
  current_limit 40;
  status CLOSED;
  mean_replacement_time 3600;
}
object fuse {
  name R2_25_00_1_fuse_27;
// downstream 172.66 kva on CS
  phases CN;
  from R2_25_00_1_node_228;
  to R2_25_00_1_node_142;
  current_limit 40;
  status CLOSED;
  mean_replacement_time 3600;
}
object fuse {
  name R2_25_00_1_fuse_28;
// downstream 104.46 kva on ABC
  phases ABCN;
  from R2_25_00_1_node_145;
  to R2_25_00_1_node_146;
  current_limit 40;
  status CLOSED;
  mean_replacement_time 3600;
}
object fuse {
  name R2_25_00_1_fuse_29;
// downstream 168.17 kva on AS
  phases AN;
  from R2_25_00_1_node_68;
  to R2_25_00_1_node_147;
  current_limit 40;
  status CLOSED;
  mean_replacement_time 3600;
}
object fuse {
  name R2_25_00_1_fuse_30;
// downstream 168.06 kva on CS
  phases CN;
  from R2_25_00_1_node_94;
  to R2_25_00_1_node_148;
  current_limit 40;
  status CLOSED;
  mean_replacement_time 3600;
}
object fuse {
  name R2_25_00_1_fuse_31;
// downstream 103.60 kva on CS
  phases CN;
  from R2_25_00_1_node_92;
  to R2_25_00_1_node_155;
  current_limit 40;
  status CLOSED;
  mean_replacement_time 3600;
}
object fuse {
  name R2_25_00_1_fuse_32;
// downstream 394.00 kva on AS
  phases AN;
  from R2_25_00_1_node_70;
  to R2_25_00_1_node_158;
  current_limit 100;
  status CLOSED;
  mean_replacement_time 3600;
}
object fuse {
  name R2_25_00_1_fuse_33;
// downstream 34.53 kva on CS
  phases CN;
  from R2_25_00_1_node_92;
  to R2_25_00_1_node_177;
  current_limit 40;
  status CLOSED;
  mean_replacement_time 3600;
}
object fuse {
  name R2_25_00_1_fuse_34;
// downstream 583.37 kva on CS
  phases CN;
  from R2_25_00_1_node_117;
  to R2_25_00_1_node_181;
  current_limit 200;
  status CLOSED;
  mean_replacement_time 3600;
}
object fuse {
  name R2_25_00_1_fuse_35;
// downstream 60.06 kva on AS
  phases AN;
  from R2_25_00_1_node_163;
  to R2_25_00_1_node_192;
  current_limit 40;
  status CLOSED;
  mean_replacement_time 3600;
}
object fuse {
  name R2_25_00_1_fuse_36;
// downstream 69.64 kva on ABCS
  phases ABCN;
  from R2_25_00_1_node_105;
  to R2_25_00_1_node_193;
  current_limit 40;
  status CLOSED;
  mean_replacement_time 3600;
}
object fuse {
  name R2_25_00_1_fuse_37;
// downstream 46.04 kva on CS
  phases CN;
  from R2_25_00_1_node_62;
  to R2_25_00_1_node_194;
  current_limit 40;
  status CLOSED;
  mean_replacement_time 3600;
}
object fuse {
  name R2_25_00_1_fuse_38;
// downstream 4.60 kva on C
  phases CN;
  from R2_25_00_1_node_306;
  to R2_25_00_1_node_195;
  current_limit 40;
  status CLOSED;
  mean_replacement_time 3600;
}
object fuse {
  name R2_25_00_1_fuse_39;
// downstream 22.60 kva on BS
  phases BN;
  from R2_25_00_1_node_27;
  to R2_25_00_1_node_196;
  current_limit 40;
  status CLOSED;
  mean_replacement_time 3600;
}
object fuse {
  name R2_25_00_1_fuse_40;
// downstream 69.64 kva on ABC
  phases ABCN;
  from R2_25_00_1_node_234;
  to R2_25_00_1_node_201;
  current_limit 40;
  status CLOSED;
  mean_replacement_time 3600;
}
object fuse {
  name R2_25_00_1_fuse_41;
// downstream 33.89 kva on BS
  phases BN;
  from R2_25_00_1_node_63;
  to R2_25_00_1_node_215;
  current_limit 40;
  status CLOSED;
  mean_replacement_time 3600;
}
object fuse {
  name R2_25_00_1_fuse_42;
// downstream 145.04 kva on C
  phases CN;
  from R2_25_00_1_node_200;
  to R2_25_00_1_node_231;
  current_limit 40;
  status CLOSED;
  mean_replacement_time 3600;
}
object fuse {
  name R2_25_00_1_fuse_43;
// downstream 235.43 kva on ABC
  phases ABCN;
  from R2_25_00_1_node_204;
  to R2_25_00_1_node_232;
  current_limit 40;
  status CLOSED;
  mean_replacement_time 3600;
}
object fuse {
  name R2_25_00_1_fuse_44;
// downstream 144.15 kva on AS
  phases AN;
  from R2_25_00_1_node_36;
  to R2_25_00_1_node_238;
  current_limit 40;
  status CLOSED;
  mean_replacement_time 3600;
}
object fuse {
  name R2_25_00_1_fuse_45;
// downstream 22.60 kva on BS
  phases BN;
  from R2_25_00_1_node_89;
  to R2_25_00_1_node_245;
  current_limit 40;
  status CLOSED;
  mean_replacement_time 3600;
}
object fuse {
  name R2_25_00_1_fuse_46;
  phases BN;
  from R2_25_00_1_node_217;
  to R2_25_00_1_node_247;
  current_limit 50000;
  status CLOSED;
  mean_replacement_time 3600;
}
object fuse {
  name R2_25_00_1_fuse_47;
// downstream 564.57 kva on AS
  phases AN;
  from R2_25_00_1_node_70;
  to R2_25_00_1_node_254;
  current_limit 100;
  status CLOSED;
  mean_replacement_time 3600;
}
object fuse {
  name R2_25_00_1_fuse_48;
// downstream 57.55 kva on C
  phases CN;
  from R2_25_00_1_node_227;
  to R2_25_00_1_node_259;
  current_limit 40;
  status CLOSED;
  mean_replacement_time 3600;
}
object fuse {
  name R2_25_00_1_fuse_49;
// downstream 92.86 kva on ABC
  phases ABCN;
  from R2_25_00_1_node_296;
  to R2_25_00_1_node_267;
  current_limit 40;
  status CLOSED;
  mean_replacement_time 3600;
}
object fuse {
  name R2_25_00_1_fuse_50;
// downstream 677.01 kva on AS
  phases AN;
  from R2_25_00_1_node_217;
  to R2_25_00_1_node_270;
  current_limit 200;
  status CLOSED;
  mean_replacement_time 3600;
}
object fuse {
  name R2_25_00_1_fuse_51;
// downstream 576.20 kva on BS
  phases BN;
  from R2_25_00_1_node_129;
  to R2_25_00_1_node_292;
  current_limit 200;
  status CLOSED;
  mean_replacement_time 3600;
}
object fuse {
  name R2_25_00_1_fuse_52;
// downstream 294.64 kva on ABCS
  phases ABCN;
  from R2_25_00_1_node_188;
  to R2_25_00_1_node_299;
  current_limit 40;
  status CLOSED;
  mean_replacement_time 3600;
}
object fuse {
  name R2_25_00_1_fuse_53;
  phases CN;
  from R2_25_00_1_node_49;
  to R2_25_00_1_node_301;
  current_limit 50000;
  status CLOSED;
  mean_replacement_time 3600;
}
object fuse {
  name R2_25_00_1_fuse_54;
// downstream 58.04 kva on ABC
  phases ABCN;
  from R2_25_00_1_node_293;
  to R2_25_00_1_node_303;
  current_limit 40;
  status CLOSED;
  mean_replacement_time 3600;
}
object fuse {
  name R2_25_00_1_fuse_55;
// downstream 23.02 kva on C
  phases CN;
  from R2_25_00_1_node_42;
  to R2_25_00_1_node_307;
  current_limit 40;
  status CLOSED;
  mean_replacement_time 3600;
}
object fuse {
  name R2_25_00_1_fuse_56;
  phases BN;
  from R2_25_00_1_node_242;
  to R2_25_00_1_node_308;
  current_limit 50000;
  status CLOSED;
  mean_replacement_time 3600;
}
object fuse {
  name R2_25_00_1_fuse_57;
// downstream 48.05 kva on AS
  phases AN;
  from R2_25_00_1_node_116;
  to R2_25_00_1_node_321;
  current_limit 40;
  status CLOSED;
  mean_replacement_time 3600;
}
object switch {
  name R2_25_00_1_switch_1;
// downstream 853.98 kva on ABCS
  phases ABCN;
  from R2_25_00_1_node_33;
  to R2_25_00_1_node_10;
  status CLOSED;
}
object switch {
  name R2_25_00_1_switch_2;
// downstream 6395.82 kva on ABCS
  phases ABCN;
  from R2_25_00_1_node_279;
  to R2_25_00_1_node_18;
  status CLOSED;
}
object switch {
  name R2_25_00_1_switch_3;
// downstream 120.12 kva on AS
  phases AN;
  from R2_25_00_1_node_96;
  to R2_25_00_1_node_32;
  status CLOSED;
}
object switch {
  name R2_25_00_1_switch_4;
// downstream 853.98 kva on ABCS
  phases ABCN;
  from R2_25_00_1_node_112;
  to R2_25_00_1_node_33;
  status CLOSED;
}
object switch {
  name R2_25_00_1_switch_5;
// downstream 2782.54 kva on ABCS
  phases ABCN;
  from R2_25_00_1_node_229;
  to R2_25_00_1_node_35;
  status CLOSED;
}
object switch {
  name R2_25_00_1_switch_6;
  phases ABCN;
  from R2_25_00_1_node_150;
  to R2_25_00_1_node_37;
  status CLOSED;
}
object switch {
  name R2_25_00_1_switch_7;
// downstream 72.07 kva on AS
  phases AN;
  from R2_25_00_1_node_81;
  to R2_25_00_1_node_59;
  status CLOSED;
}
object switch {
  name R2_25_00_1_switch_8;
  phases ABCN;
  from R2_25_00_1_node_165;
  to R2_25_00_1_node_69;
  status CLOSED;
}
object switch {
  name R2_25_00_1_switch_9;
// downstream 584.75 kva on AS
  phases AN;
  from R2_25_00_1_node_252;
  to R2_25_00_1_node_74;
  status CLOSED;
}
object switch {
  name R2_25_00_1_switch_10;
// downstream 56.49 kva on BS
  phases BN;
  from R2_25_00_1_node_65;
  to R2_25_00_1_node_95;
  status CLOSED;
}
object switch {
  name R2_25_00_1_switch_11;
// downstream 72.07 kva on AS
  phases AN;
  from R2_25_00_1_node_139;
  to R2_25_00_1_node_116;
  status CLOSED;
}
object switch {
  name R2_25_00_1_switch_12;
  phases ABCN;
  from R2_25_00_1_node_56;
  to R2_25_00_1_node_121;
  status CLOSED;
}
object switch {
  name R2_25_00_1_switch_13;
// downstream 10563.67 kva on ABCS
  phases ABCN;
  from R2_25_00_1_node_251;
  to R2_25_00_1_node_131;
  status CLOSED;
}
object switch {
  name R2_25_00_1_switch_14;
// downstream 6.96 kva on ABCS
  phases ABCN;
  from R2_25_00_1_node_300;
  to R2_25_00_1_node_2;
  status CLOSED;
}
object switch {
  name R2_25_00_1_switch_15;
  phases ABCN;
  from R2_25_00_1_node_176;
  to R2_25_00_1_node_157;
  status CLOSED;
}
object switch {
  name R2_25_00_1_switch_16;
// downstream 172.66 kva on CS
  phases CN;
  from R2_25_00_1_node_208;
  to R2_25_00_1_node_185;
  status CLOSED;
}
object switch {
  name R2_25_00_1_switch_17;
// downstream 521.02 kva on ABCS
  phases ABCN;
  from R2_25_00_1_node_293;
  to R2_25_00_1_node_188;
  status CLOSED;
}
object switch {
  name R2_25_00_1_switch_18;
// downstream 261.44 kva on ABCS
  phases ABCN;
  from R2_25_00_1_node_25;
  to R2_25_00_1_node_205;
  status CLOSED;
}
object switch {
  name R2_25_00_1_switch_19;
  phases AN;
  from R2_25_00_1_node_270;
  to R2_25_00_1_node_213;
  status CLOSED;
}
object switch {
  name R2_25_00_1_switch_20;
  phases CN;
  from R2_25_00_1_node_209;
  to R2_25_00_1_node_216;
  status CLOSED;
}
object switch {
  name R2_25_00_1_switch_21;
...